
     RDKit          3D

 18 18  0  0  0  0  0  0  0  0999 V2000
   -1.5626   -0.6337   -2.7490 O   0  0  0  0  0  0  0  0  0  0  0  0
   -0.7597   -0.1259   -1.9721 C   0  0  0  0  0  0  0  0  0  0  0  0
    0.4894   -0.8500   -1.5595 C   0  0  0  0  0  0  0  0  0  0  0  0
    0.3508   -1.3871   -0.1483 C   0  0  0  0  0  0  0  0  0  0  0  0
    1.2576   -0.7097    0.7470 O   0  0  0  0  0  0  0  0  0  0  0  0
    1.0212    0.5075    1.2840 C   0  0  0  0  0  0  0  0  0  0  0  0
    1.8241    1.0153    2.0609 O   0  0  0  0  0  0  0  0  0  0  0  0
   -0.2280    1.2316    0.8714 C   0  0  0  0  0  0  0  0  0  0  0  0
   -0.0893    1.7687   -0.5398 C   0  0  0  0  0  0  0  0  0  0  0  0
   -0.9961    1.0913   -1.4351 O   0  0  0  0  0  0  0  0  0  0  0  0
    1.3727   -0.2249   -1.7151 H   0  0  0  0  0  0  0  0  0  0  0  0
    0.5935   -1.6948   -2.2529 H   0  0  0  0  0  0  0  0  0  0  0  0
    0.6659   -2.4365   -0.1341 H   0  0  0  0  0  0  0  0  0  0  0  0
   -0.6701   -1.3671    0.2466 H   0  0  0  0  0  0  0  0  0  0  0  0
   -0.3320    2.0764    1.5648 H   0  0  0  0  0  0  0  0  0  0  0  0
   -1.1113    0.6065    1.0270 H   0  0  0  0  0  0  0  0  0  0  0  0
   -0.4045    2.8181   -0.5540 H   0  0  0  0  0  0  0  0  0  0  0  0
    0.9316    1.7487   -0.9347 H   0  0  0  0  0  0  0  0  0  0  0  0
  1  2  2  0
  2  3  1  0
  3  4  1  0
  4  5  1  0
  5  6  1  0
  6  7  2  0
  6  8  1  0
  8  9  1  0
  9 10  1  0
 10  2  1  0
  3 11  1  0
  3 12  1  0
  4 13  1  0
  4 14  1  0
  8 15  1  0
  8 16  1  0
  9 17  1  0
  9 18  1  0
M  END
>  <conformer_id>  (1) 
5

>  <energy>  (1) 
-48350.941843594672

$$$$

     RDKit          3D

 18 18  0  0  0  0  0  0  0  0999 V2000
   -1.5340   -0.5694   -2.7898 O   0  0  0  0  0  0  0  0  0  0  0  0
   -0.7204   -0.1055   -1.9968 C   0  0  0  0  0  0  0  0  0  0  0  0
    0.4435   -0.9197   -1.5095 C   0  0  0  0  0  0  0  0  0  0  0  0
    0.2038   -1.3922   -0.0888 C   0  0  0  0  0  0  0  0  0  0  0  0
    1.1311   -0.7642    0.8213 O   0  0  0  0  0  0  0  0  0  0  0  0
    0.9818    0.4871    1.3087 C   0  0  0  0  0  0  0  0  0  0  0  0
    1.7955    0.9510    2.1017 O   0  0  0  0  0  0  0  0  0  0  0  0
   -0.1821    1.3013    0.8213 C   0  0  0  0  0  0  0  0  0  0  0  0
    0.0577    1.7738   -0.5994 C   0  0  0  0  0  0  0  0  0  0  0  0
   -0.8697    1.1458   -1.5094 O   0  0  0  0  0  0  0  0  0  0  0  0
    1.3836   -0.3792   -1.6481 H   0  0  0  0  0  0  0  0  0  0  0  0
    0.4999   -1.7944   -2.1705 H   0  0  0  0  0  0  0  0  0  0  0  0
   -0.8260   -1.2701    0.2624 H   0  0  0  0  0  0  0  0  0  0  0  0
    0.4248   -2.4638   -0.0278 H   0  0  0  0  0  0  0  0  0  0  0  0
   -0.2384    2.1760    1.4823 H   0  0  0  0  0  0  0  0  0  0  0  0
   -1.1222    0.7608    0.9600 H   0  0  0  0  0  0  0  0  0  0  0  0
   -0.1633    2.8454   -0.6603 H   0  0  0  0  0  0  0  0  0  0  0  0
    1.0875    1.6517   -0.9505 H   0  0  0  0  0  0  0  0  0  0  0  0
  1  2  2  0
  2  3  1  0
  3  4  1  0
  4  5  1  0
  5  6  1  0
  6  7  2  0
  6  8  1  0
  8  9  1  0
  9 10  1  0
 10  2  1  0
  3 11  1  0
  3 12  1  0
  4 13  1  0
  4 14  1  0
  8 15  1  0
  8 16  1  0
  9 17  1  0
  9 18  1  0
M  END
>  <conformer_id>  (2) 
3

>  <energy>  (2) 
-48350.941843263223

$$$$

     RDKit          3D

 18 18  0  0  0  0  0  0  0  0999 V2000
   -1.9092   -0.2315   -1.4742 O   0  0  0  0  0  0  0  0  0  0  0  0
   -0.6998   -0.1196   -1.6041 C   0  0  0  0  0  0  0  0  0  0  0  0
    0.2696   -1.2721   -1.6113 C   0  0  0  0  0  0  0  0  0  0  0  0
    0.6814   -1.5693   -0.1700 C   0  0  0  0  0  0  0  0  0  0  0  0
    1.3311   -0.4053    0.3740 O   0  0  0  0  0  0  0  0  0  0  0  0
    0.5169    0.3855    1.1347 C   0  0  0  0  0  0  0  0  0  0  0  0
   -0.2621   -0.0203    1.9836 O   0  0  0  0  0  0  0  0  0  0  0  0
    0.5748    1.8054    0.6363 C   0  0  0  0  0  0  0  0  0  0  0  0
   -0.4096    1.9536   -0.5232 C   0  0  0  0  0  0  0  0  0  0  0  0
   -0.0137    1.0618   -1.5819 O   0  0  0  0  0  0  0  0  0  0  0  0
    1.1352   -1.0013   -2.2263 H   0  0  0  0  0  0  0  0  0  0  0  0
   -0.2097   -2.1392   -2.0760 H   0  0  0  0  0  0  0  0  0  0  0  0
    1.4079   -2.3879   -0.1512 H   0  0  0  0  0  0  0  0  0  0  0  0
   -0.1813   -1.8761    0.4330 H   0  0  0  0  0  0  0  0  0  0  0  0
    1.6004    2.0270    0.3203 H   0  0  0  0  0  0  0  0  0  0  0  0
    0.3269    2.4832    1.4589 H   0  0  0  0  0  0  0  0  0  0  0  0
   -0.3665    2.9725   -0.9208 H   0  0  0  0  0  0  0  0  0  0  0  0
   -1.4390    1.7678   -0.1948 H   0  0  0  0  0  0  0  0  0  0  0  0
  1  2  2  0
  2  3  1  0
  3  4  1  0
  4  5  1  0
  5  6  1  0
  6  7  2  0
  6  8  1  0
  8  9  1  0
  9 10  1  0
 10  2  1  0
  3 11  1  0
  3 12  1  0
  4 13  1  0
  4 14  1  0
  8 15  1  0
  8 16  1  0
  9 17  1  0
  9 18  1  0
M  END
>  <conformer_id>  (3) 
12

>  <energy>  (3) 
-48315.961792248476

$$$$

     RDKit          3D

 18 18  0  0  0  0  0  0  0  0999 V2000
   -1.5775   -0.8416   -2.5143 O   0  0  0  0  0  0  0  0  0  0  0  0
   -0.7850   -0.2361   -1.7969 C   0  0  0  0  0  0  0  0  0  0  0  0
    0.5538   -0.8363   -1.4507 C   0  0  0  0  0  0  0  0  0  0  0  0
    0.4804   -1.5857   -0.1239 C   0  0  0  0  0  0  0  0  0  0  0  0
   -0.0363   -0.7490    0.9168 O   0  0  0  0  0  0  0  0  0  0  0  0
    0.7030    0.3732    1.1174 C   0  0  0  0  0  0  0  0  0  0  0  0
    1.9208    0.4052    1.2085 O   0  0  0  0  0  0  0  0  0  0  0  0
   -0.1723    1.5736    0.9328 C   0  0  0  0  0  0  0  0  0  0  0  0
   -0.2307    1.8668   -0.5602 C   0  0  0  0  0  0  0  0  0  0  0  0
   -1.1247    0.9628   -1.2587 O   0  0  0  0  0  0  0  0  0  0  0  0
    0.8267   -1.5365   -2.2497 H   0  0  0  0  0  0  0  0  0  0  0  0
    1.3351   -0.0742   -1.4647 H   0  0  0  0  0  0  0  0  0  0  0  0
    1.4589   -1.9853    0.1660 H   0  0  0  0  0  0  0  0  0  0  0  0
   -0.2057   -2.4351   -0.2139 H   0  0  0  0  0  0  0  0  0  0  0  0
   -1.1633    1.3783    1.3558 H   0  0  0  0  0  0  0  0  0  0  0  0
    0.2741    2.4078    1.4836 H   0  0  0  0  0  0  0  0  0  0  0  0
   -0.6577    2.8656   -0.7027 H   0  0  0  0  0  0  0  0  0  0  0  0
    0.7536    1.8810   -1.0383 H   0  0  0  0  0  0  0  0  0  0  0  0
  1  2  2  0
  2  3  1  0
  3  4  1  0
  4  5  1  0
  5  6  1  0
  6  7  2  0
  6  8  1  0
  8  9  1  0
  9 10  1  0
 10  2  1  0
  3 11  1  0
  3 12  1  0
  4 13  1  0
  4 14  1  0
  8 15  1  0
  8 16  1  0
  9 17  1  0
  9 18  1  0
M  END
>  <conformer_id>  (4) 
9

>  <energy>  (4) 
-42289.034238002445

$$$$

     RDKit          3D

 18 18  0  0  0  0  0  0  0  0999 V2000
   -2.1257    0.0060   -1.7055 O   0  0  0  0  0  0  0  0  0  0  0  0
   -0.9159   -0.1240   -1.6012 C   0  0  0  0  0  0  0  0  0  0  0  0
   -0.2070   -1.4263   -1.3650 C   0  0  0  0  0  0  0  0  0  0  0  0
    0.9176   -1.2614   -0.3500 C   0  0  0  0  0  0  0  0  0  0  0  0
    0.3916   -0.8554    0.9347 O   0  0  0  0  0  0  0  0  0  0  0  0
    0.2838    0.4206    1.3778 C   0  0  0  0  0  0  0  0  0  0  0  0
   -0.2054    0.6520    2.4807 O   0  0  0  0  0  0  0  0  0  0  0  0
    0.7652    1.5472    0.4996 C   0  0  0  0  0  0  0  0  0  0  0  0
   -0.2222    1.8560   -0.6136 C   0  0  0  0  0  0  0  0  0  0  0  0
   -0.0292    0.9031   -1.6650 O   0  0  0  0  0  0  0  0  0  0  0  0
   -0.9458   -2.1361   -0.9763 H   0  0  0  0  0  0  0  0  0  0  0  0
    0.1753   -1.7990   -2.3198 H   0  0  0  0  0  0  0  0  0  0  0  0
    1.7107   -0.5918   -0.6925 H   0  0  0  0  0  0  0  0  0  0  0  0
    1.3922   -2.2357   -0.1889 H   0  0  0  0  0  0  0  0  0  0  0  0
    1.7741    1.3371    0.1344 H   0  0  0  0  0  0  0  0  0  0  0  0
    0.8568    2.4301    1.1451 H   0  0  0  0  0  0  0  0  0  0  0  0
   -1.2572    1.8701   -0.2503 H   0  0  0  0  0  0  0  0  0  0  0  0
   -0.0058    2.8420   -1.0373 H   0  0  0  0  0  0  0  0  0  0  0  0
  1  2  2  0
  2  3  1  0
  3  4  1  0
  4  5  1  0
  5  6  1  0
  6  7  2  0
  6  8  1  0
  8  9  1  0
  9 10  1  0
 10  2  1  0
  3 11  1  0
  3 12  1  0
  4 13  1  0
  4 14  1  0
  8 15  1  0
  8 16  1  0
  9 17  1  0
  9 18  1  0
M  END
>  <conformer_id>  (5) 
6

>  <energy>  (5) 
-38390.457854499917

$$$$

     RDKit          3D

 18 18  0  0  0  0  0  0  0  0999 V2000
   -1.8064    0.2537   -1.8001 O   0  0  0  0  0  0  0  0  0  0  0  0
   -0.6318   -0.0415   -1.6377 C   0  0  0  0  0  0  0  0  0  0  0  0
   -0.1203   -1.4372   -1.3881 C   0  0  0  0  0  0  0  0  0  0  0  0
    0.8038   -1.4670   -0.1670 C   0  0  0  0  0  0  0  0  0  0  0  0
    0.1884   -0.7589    0.9247 O   0  0  0  0  0  0  0  0  0  0  0  0
    0.7440    0.4690    1.1516 C   0  0  0  0  0  0  0  0  0  0  0  0
    1.8946    0.6455    1.5225 O   0  0  0  0  0  0  0  0  0  0  0  0
   -0.2085    1.5635    0.7403 C   0  0  0  0  0  0  0  0  0  0  0  0
    0.0853    1.9887   -0.6996 C   0  0  0  0  0  0  0  0  0  0  0  0
    0.3828    0.8584   -1.5375 O   0  0  0  0  0  0  0  0  0  0  0  0
   -0.9946   -2.0675   -1.1879 H   0  0  0  0  0  0  0  0  0  0  0  0
    0.3815   -1.8164   -2.2826 H   0  0  0  0  0  0  0  0  0  0  0  0
    0.9628   -2.5016    0.1543 H   0  0  0  0  0  0  0  0  0  0  0  0
    1.7878   -1.0484   -0.4138 H   0  0  0  0  0  0  0  0  0  0  0  0
   -0.1198    2.4071    1.4320 H   0  0  0  0  0  0  0  0  0  0  0  0
   -1.2346    1.1897    0.8366 H   0  0  0  0  0  0  0  0  0  0  0  0
   -0.7385    2.5724   -1.1255 H   0  0  0  0  0  0  0  0  0  0  0  0
    0.9769    2.6250   -0.7155 H   0  0  0  0  0  0  0  0  0  0  0  0
  1  2  2  0
  2  3  1  0
  3  4  1  0
  4  5  1  0
  5  6  1  0
  6  7  2  0
  6  8  1  0
  8  9  1  0
  9 10  1  0
 10  2  1  0
  3 11  1  0
  3 12  1  0
  4 13  1  0
  4 14  1  0
  8 15  1  0
  8 16  1  0
  9 17  1  0
  9 18  1  0
M  END
>  <conformer_id>  (6) 
17

>  <energy>  (6) 
-29345.674285245241

$$$$

     RDKit          3D

 18 18  0  0  0  0  0  0  0  0999 V2000
   -0.9012   -0.2584   -3.2670 O   0  0  0  0  0  0  0  0  0  0  0  0
   -0.5289   -0.0067   -2.1233 C   0  0  0  0  0  0  0  0  0  0  0  0
    0.6400   -0.7389   -1.5244 C   0  0  0  0  0  0  0  0  0  0  0  0
    0.3286   -1.3729   -0.1899 C   0  0  0  0  0  0  0  0  0  0  0  0
    1.0443   -0.7793    0.9167 O   0  0  0  0  0  0  0  0  0  0  0  0
    1.0194    0.5087    1.3140 C   0  0  0  0  0  0  0  0  0  0  0  0
    1.5211    0.8284    2.3892 O   0  0  0  0  0  0  0  0  0  0  0  0
    0.4509    1.5563    0.3974 C   0  0  0  0  0  0  0  0  0  0  0  0
   -0.9737    1.2782   -0.0184 C   0  0  0  0  0  0  0  0  0  0  0  0
   -1.1213    0.9830   -1.4257 O   0  0  0  0  0  0  0  0  0  0  0  0
    1.5224   -0.0945   -1.5149 H   0  0  0  0  0  0  0  0  0  0  0  0
    0.8684   -1.5497   -2.2299 H   0  0  0  0  0  0  0  0  0  0  0  0
    0.6790   -2.4117   -0.2138 H   0  0  0  0  0  0  0  0  0  0  0  0
   -0.7374   -1.4296    0.0494 H   0  0  0  0  0  0  0  0  0  0  0  0
    0.4483    2.4858    0.9833 H   0  0  0  0  0  0  0  0  0  0  0  0
    1.1312    1.7332   -0.4392 H   0  0  0  0  0  0  0  0  0  0  0  0
   -1.4788    0.5093    0.5736 H   0  0  0  0  0  0  0  0  0  0  0  0
   -1.5590    2.1935    0.1298 H   0  0  0  0  0  0  0  0  0  0  0  0
  1  2  2  0
  2  3  1  0
  3  4  1  0
  4  5  1  0
  5  6  1  0
  6  7  2  0
  6  8  1  0
  8  9  1  0
  9 10  1  0
 10  2  1  0
  3 11  1  0
  3 12  1  0
  4 13  1  0
  4 14  1  0
  8 15  1  0
  8 16  1  0
  9 17  1  0
  9 18  1  0
M  END
>  <conformer_id>  (7) 
4

>  <energy>  (7) 
-11292.003988490991

$$$$

     RDKit          3D

 18 18  0  0  0  0  0  0  0  0999 V2000
   -1.0560   -0.3612   -3.1896 O   0  0  0  0  0  0  0  0  0  0  0  0
   -0.6031   -0.0645   -2.0865 C   0  0  0  0  0  0  0  0  0  0  0  0
    0.3606   -0.9825   -1.3869 C   0  0  0  0  0  0  0  0  0  0  0  0
   -0.0647   -1.3387    0.0174 C   0  0  0  0  0  0  0  0  0  0  0  0
    0.8050   -0.8051    1.0411 O   0  0  0  0  0  0  0  0  0  0  0  0
    1.1132    0.4883    1.2641 C   0  0  0  0  0  0  0  0  0  0  0  0
    1.7066    0.8088    2.2913 O   0  0  0  0  0  0  0  0  0  0  0  0
    0.8012    1.5166    0.2124 C   0  0  0  0  0  0  0  0  0  0  0  0
   -0.6580    1.5536   -0.1739 C   0  0  0  0  0  0  0  0  0  0  0  0
   -0.9111    1.1244   -1.5307 O   0  0  0  0  0  0  0  0  0  0  0  0
    0.3608   -1.9094   -1.9769 H   0  0  0  0  0  0  0  0  0  0  0  0
    1.3761   -0.5849   -1.4560 H   0  0  0  0  0  0  0  0  0  0  0  0
    0.0141   -2.4261    0.1340 H   0  0  0  0  0  0  0  0  0  0  0  0
   -1.1044   -1.0941    0.2539 H   0  0  0  0  0  0  0  0  0  0  0  0
    1.4823    1.4064   -0.6350 H   0  0  0  0  0  0  0  0  0  0  0  0
    1.0462    2.4850    0.6700 H   0  0  0  0  0  0  0  0  0  0  0  0
   -0.9918    2.5978   -0.1527 H   0  0  0  0  0  0  0  0  0  0  0  0
   -1.3238    1.0201    0.5109 H   0  0  0  0  0  0  0  0  0  0  0  0
  1  2  2  0
  2  3  1  0
  3  4  1  0
  4  5  1  0
  5  6  1  0
  6  7  2  0
  6  8  1  0
  8  9  1  0
  9 10  1  0
 10  2  1  0
  3 11  1  0
  3 12  1  0
  4 13  1  0
  4 14  1  0
  8 15  1  0
  8 16  1  0
  9 17  1  0
  9 18  1  0
M  END
>  <conformer_id>  (8) 
1

>  <energy>  (8) 
-11292.003988342614

$$$$

     RDKit          3D

 18 18  0  0  0  0  0  0  0  0999 V2000
   -1.3049   -0.4148   -3.0611 O   0  0  0  0  0  0  0  0  0  0  0  0
   -0.7717   -0.1008   -1.9995 C   0  0  0  0  0  0  0  0  0  0  0  0
   -0.4255   -1.1515   -0.9811 C   0  0  0  0  0  0  0  0  0  0  0  0
    1.0183   -1.1059   -0.5416 C   0  0  0  0  0  0  0  0  0  0  0  0
    1.1932   -0.7216    0.8408 O   0  0  0  0  0  0  0  0  0  0  0  0
    0.7836    0.4174    1.4343 C   0  0  0  0  0  0  0  0  0  0  0  0
    1.1758    0.6947    2.5653 O   0  0  0  0  0  0  0  0  0  0  0  0
   -0.2170    1.2977    0.7379 C   0  0  0  0  0  0  0  0  0  0  0  0
    0.2312    1.7447   -0.6329 C   0  0  0  0  0  0  0  0  0  0  0  0
   -0.5627    1.1993   -1.7105 O   0  0  0  0  0  0  0  0  0  0  0  0
   -1.1418   -1.1261   -0.1563 H   0  0  0  0  0  0  0  0  0  0  0  0
   -0.5860   -2.1129   -1.4882 H   0  0  0  0  0  0  0  0  0  0  0  0
    1.6687   -0.4980   -1.1775 H   0  0  0  0  0  0  0  0  0  0  0  0
    1.4249   -2.1229   -0.5942 H   0  0  0  0  0  0  0  0  0  0  0  0
   -1.2039    0.8290    0.7516 H   0  0  0  0  0  0  0  0  0  0  0  0
   -0.3026    2.1951    1.3662 H   0  0  0  0  0  0  0  0  0  0  0  0
    1.2932    1.5826   -0.8399 H   0  0  0  0  0  0  0  0  0  0  0  0
    0.0807    2.8284   -0.7063 H   0  0  0  0  0  0  0  0  0  0  0  0
  1  2  2  0
  2  3  1  0
  3  4  1  0
  4  5  1  0
  5  6  1  0
  6  7  2  0
  6  8  1  0
  8  9  1  0
  9 10  1  0
 10  2  1  0
  3 11  1  0
  3 12  1  0
  4 13  1  0
  4 14  1  0
  8 15  1  0
  8 16  1  0
  9 17  1  0
  9 18  1  0
M  END
>  <conformer_id>  (9) 
0

>  <energy>  (9) 
-11292.003988163971

$$$$

     RDKit          3D

 18 18  0  0  0  0  0  0  0  0999 V2000
   -0.9143   -0.3131   -3.2534 O   0  0  0  0  0  0  0  0  0  0  0  0
   -0.5221   -0.0358   -2.1224 C   0  0  0  0  0  0  0  0  0  0  0  0
    0.4784   -0.9161   -1.4260 C   0  0  0  0  0  0  0  0  0  0  0  0
    0.0303   -1.3631   -0.0552 C   0  0  0  0  0  0  0  0  0  0  0  0
    0.8242   -0.8177    1.0224 O   0  0  0  0  0  0  0  0  0  0  0  0
    1.0332    0.4824    1.3114 C   0  0  0  0  0  0  0  0  0  0  0  0
    1.5664    0.7964    2.3730 O   0  0  0  0  0  0  0  0  0  0  0  0
    0.6870    1.5331    0.2930 C   0  0  0  0  0  0  0  0  0  0  0  0
   -0.7568    1.4875   -0.1465 C   0  0  0  0  0  0  0  0  0  0  0  0
   -0.9317    1.1032   -1.5289 O   0  0  0  0  0  0  0  0  0  0  0  0
    0.5640   -1.8135   -2.0543 H   0  0  0  0  0  0  0  0  0  0  0  0
    1.4654   -0.4474   -1.4397 H   0  0  0  0  0  0  0  0  0  0  0  0
   -1.0317   -1.2010    0.1518 H   0  0  0  0  0  0  0  0  0  0  0  0
    0.1808   -2.4468    0.0182 H   0  0  0  0  0  0  0  0  0  0  0  0
    0.8475    2.4945    0.8001 H   0  0  0  0  0  0  0  0  0  0  0  0
    1.4033    1.5077   -0.5318 H   0  0  0  0  0  0  0  0  0  0  0  0
   -1.4072    0.8796    0.4894 H   0  0  0  0  0  0  0  0  0  0  0  0
   -1.1634    2.5045   -0.0939 H   0  0  0  0  0  0  0  0  0  0  0  0
  1  2  2  0
  2  3  1  0
  3  4  1  0
  4  5  1  0
  5  6  1  0
  6  7  2  0
  6  8  1  0
  8  9  1  0
  9 10  1  0
 10  2  1  0
  3 11  1  0
  3 12  1  0
  4 13  1  0
  4 14  1  0
  8 15  1  0
  8 16  1  0
  9 17  1  0
  9 18  1  0
M  END
>  <conformer_id>  (10) 
7

>  <energy>  (10) 
-11292.003988010956

$$$$

     RDKit          3D

 18 18  0  0  0  0  0  0  0  0999 V2000
   -1.3049   -0.4148   -3.0611 O   0  0  0  0  0  0  0  0  0  0  0  0
   -0.7717   -0.1008   -1.9995 C   0  0  0  0  0  0  0  0  0  0  0  0
   -0.4255   -1.1515   -0.9811 C   0  0  0  0  0  0  0  0  0  0  0  0
    1.0183   -1.1059   -0.5416 C   0  0  0  0  0  0  0  0  0  0  0  0
    1.1932   -0.7216    0.8408 O   0  0  0  0  0  0  0  0  0  0  0  0
    0.7836    0.4174    1.4343 C   0  0  0  0  0  0  0  0  0  0  0  0
    1.1758    0.6947    2.5653 O   0  0  0  0  0  0  0  0  0  0  0  0
   -0.2170    1.2977    0.7379 C   0  0  0  0  0  0  0  0  0  0  0  0
    0.2312    1.7447   -0.6329 C   0  0  0  0  0  0  0  0  0  0  0  0
   -0.5627    1.1993   -1.7105 O   0  0  0  0  0  0  0  0  0  0  0  0
   -1.1418   -1.1261   -0.1563 H   0  0  0  0  0  0  0  0  0  0  0  0
   -0.5860   -2.1129   -1.4882 H   0  0  0  0  0  0  0  0  0  0  0  0
    1.4249   -2.1229   -0.5942 H   0  0  0  0  0  0  0  0  0  0  0  0
    1.6687   -0.4980   -1.1775 H   0  0  0  0  0  0  0  0  0  0  0  0
   -1.2039    0.8290    0.7516 H   0  0  0  0  0  0  0  0  0  0  0  0
   -0.3026    2.1951    1.3662 H   0  0  0  0  0  0  0  0  0  0  0  0
    0.0807    2.8284   -0.7063 H   0  0  0  0  0  0  0  0  0  0  0  0
    1.2932    1.5826   -0.8399 H   0  0  0  0  0  0  0  0  0  0  0  0
  1  2  2  0
  2  3  1  0
  3  4  1  0
  4  5  1  0
  5  6  1  0
  6  7  2  0
  6  8  1  0
  8  9  1  0
  9 10  1  0
 10  2  1  0
  3 11  1  0
  3 12  1  0
  4 13  1  0
  4 14  1  0
  8 15  1  0
  8 16  1  0
  9 17  1  0
  9 18  1  0
M  END
>  <conformer_id>  (11) 
13

>  <energy>  (11) 
-11292.003987543376

$$$$

     RDKit          3D

 18 18  0  0  0  0  0  0  0  0999 V2000
   -1.3049   -0.4148   -3.0611 O   0  0  0  0  0  0  0  0  0  0  0  0
   -0.7717   -0.1008   -1.9995 C   0  0  0  0  0  0  0  0  0  0  0  0
   -0.4255   -1.1515   -0.9811 C   0  0  0  0  0  0  0  0  0  0  0  0
    1.0183   -1.1059   -0.5416 C   0  0  0  0  0  0  0  0  0  0  0  0
    1.1932   -0.7216    0.8408 O   0  0  0  0  0  0  0  0  0  0  0  0
    0.7836    0.4174    1.4343 C   0  0  0  0  0  0  0  0  0  0  0  0
    1.1758    0.6947    2.5653 O   0  0  0  0  0  0  0  0  0  0  0  0
   -0.2170    1.2977    0.7379 C   0  0  0  0  0  0  0  0  0  0  0  0
    0.2312    1.7447   -0.6329 C   0  0  0  0  0  0  0  0  0  0  0  0
   -0.5627    1.1993   -1.7105 O   0  0  0  0  0  0  0  0  0  0  0  0
   -0.5860   -2.1129   -1.4882 H   0  0  0  0  0  0  0  0  0  0  0  0
   -1.1418   -1.1261   -0.1563 H   0  0  0  0  0  0  0  0  0  0  0  0
    1.4249   -2.1229   -0.5942 H   0  0  0  0  0  0  0  0  0  0  0  0
    1.6687   -0.4980   -1.1775 H   0  0  0  0  0  0  0  0  0  0  0  0
   -1.2039    0.8290    0.7516 H   0  0  0  0  0  0  0  0  0  0  0  0
   -0.3026    2.1951    1.3662 H   0  0  0  0  0  0  0  0  0  0  0  0
    1.2932    1.5826   -0.8399 H   0  0  0  0  0  0  0  0  0  0  0  0
    0.0807    2.8284   -0.7063 H   0  0  0  0  0  0  0  0  0  0  0  0
  1  2  2  0
  2  3  1  0
  3  4  1  0
  4  5  1  0
  5  6  1  0
  6  7  2  0
  6  8  1  0
  8  9  1  0
  9 10  1  0
 10  2  1  0
  3 11  1  0
  3 12  1  0
  4 13  1  0
  4 14  1  0
  8 15  1  0
  8 16  1  0
  9 17  1  0
  9 18  1  0
M  END
>  <conformer_id>  (12) 
15

>  <energy>  (12) 
-11292.003979901747

$$$$

     RDKit          3D

 18 18  0  0  0  0  0  0  0  0999 V2000
    0.4451   -0.2403   -3.2545 O   0  0  0  0  0  0  0  0  0  0  0  0
    0.0855    0.0594   -2.1212 C   0  0  0  0  0  0  0  0  0  0  0  0
   -0.4724   -0.9597   -1.1800 C   0  0  0  0  0  0  0  0  0  0  0  0
    0.5779   -1.4690   -0.2045 C   0  0  0  0  0  0  0  0  0  0  0  0
    1.6050   -0.5360    0.1993 O   0  0  0  0  0  0  0  0  0  0  0  0
    1.3902    0.6383    0.8354 C   0  0  0  0  0  0  0  0  0  0  0  0
    2.3121    1.2716    1.3379 O   0  0  0  0  0  0  0  0  0  0  0  0
   -0.0159    1.1461    0.8609 C   0  0  0  0  0  0  0  0  0  0  0  0
   -0.3984    1.8293   -0.4433 C   0  0  0  0  0  0  0  0  0  0  0  0
    0.2099    1.3220   -1.6521 O   0  0  0  0  0  0  0  0  0  0  0  0
   -0.8578   -1.8021   -1.7684 H   0  0  0  0  0  0  0  0  0  0  0  0
   -1.3631   -0.5659   -0.6837 H   0  0  0  0  0  0  0  0  0  0  0  0
    1.1160   -2.2988   -0.6775 H   0  0  0  0  0  0  0  0  0  0  0  0
    0.1077   -1.8845    0.6941 H   0  0  0  0  0  0  0  0  0  0  0  0
   -0.1115    1.8633    1.6861 H   0  0  0  0  0  0  0  0  0  0  0  0
   -0.7014    0.3419    1.1405 H   0  0  0  0  0  0  0  0  0  0  0  0
   -0.0893    2.8796   -0.3873 H   0  0  0  0  0  0  0  0  0  0  0  0
   -1.4863    1.8391   -0.5748 H   0  0  0  0  0  0  0  0  0  0  0  0
  1  2  2  0
  2  3  1  0
  3  4  1  0
  4  5  1  0
  5  6  1  0
  6  7  2  0
  6  8  1  0
  8  9  1  0
  9 10  1  0
 10  2  1  0
  3 11  1  0
  3 12  1  0
  4 13  1  0
  4 14  1  0
  8 15  1  0
  8 16  1  0
  9 17  1  0
  9 18  1  0
M  END
>  <conformer_id>  (13) 
8

>  <energy>  (13) 
-1615.2559018626648

$$$$

     RDKit          3D

 18 18  0  0  0  0  0  0  0  0999 V2000
    0.4740   -0.3121   -3.2397 O   0  0  0  0  0  0  0  0  0  0  0  0
    0.0996    0.0089   -2.1171 C   0  0  0  0  0  0  0  0  0  0  0  0
   -0.4356   -0.9987   -1.1506 C   0  0  0  0  0  0  0  0  0  0  0  0
    0.6225   -1.4515   -0.1559 C   0  0  0  0  0  0  0  0  0  0  0  0
    1.6212   -0.4796    0.2270 O   0  0  0  0  0  0  0  0  0  0  0  0
    1.3704    0.7056    0.8289 C   0  0  0  0  0  0  0  0  0  0  0  0
    2.2716    1.3778    1.3183 O   0  0  0  0  0  0  0  0  0  0  0  0
   -0.0493    1.1747    0.8330 C   0  0  0  0  0  0  0  0  0  0  0  0
   -0.4426    1.8107   -0.4917 C   0  0  0  0  0  0  0  0  0  0  0  0
    0.1865    1.2870   -1.6828 O   0  0  0  0  0  0  0  0  0  0  0  0
   -1.3397   -0.6160   -0.6701 H   0  0  0  0  0  0  0  0  0  0  0  0
   -0.7942   -1.8675   -1.7173 H   0  0  0  0  0  0  0  0  0  0  0  0
    0.1586   -1.8547    0.7515 H   0  0  0  0  0  0  0  0  0  0  0  0
    1.1860   -2.2789   -0.6028 H   0  0  0  0  0  0  0  0  0  0  0  0
   -0.1694    1.9117    1.6374 H   0  0  0  0  0  0  0  0  0  0  0  0
   -0.7140    0.3600    1.1315 H   0  0  0  0  0  0  0  0  0  0  0  0
   -1.5296    1.7867   -0.6291 H   0  0  0  0  0  0  0  0  0  0  0  0
   -0.1628    2.8703   -0.4635 H   0  0  0  0  0  0  0  0  0  0  0  0
  1  2  2  0
  2  3  1  0
  3  4  1  0
  4  5  1  0
  5  6  1  0
  6  7  2  0
  6  8  1  0
  8  9  1  0
  9 10  1  0
 10  2  1  0
  3 11  1  0
  3 12  1  0
  4 13  1  0
  4 14  1  0
  8 15  1  0
  8 16  1  0
  9 17  1  0
  9 18  1  0
M  END
>  <conformer_id>  (14) 
18

>  <energy>  (14) 
-1615.2559012946901

$$$$

     RDKit          3D

 18 18  0  0  0  0  0  0  0  0999 V2000
    0.4740   -0.3121   -3.2397 O   0  0  0  0  0  0  0  0  0  0  0  0
    0.0996    0.0089   -2.1171 C   0  0  0  0  0  0  0  0  0  0  0  0
   -0.4356   -0.9987   -1.1506 C   0  0  0  0  0  0  0  0  0  0  0  0
    0.6225   -1.4515   -0.1559 C   0  0  0  0  0  0  0  0  0  0  0  0
    1.6212   -0.4796    0.2270 O   0  0  0  0  0  0  0  0  0  0  0  0
    1.3704    0.7056    0.8289 C   0  0  0  0  0  0  0  0  0  0  0  0
    2.2716    1.3778    1.3183 O   0  0  0  0  0  0  0  0  0  0  0  0
   -0.0493    1.1747    0.8330 C   0  0  0  0  0  0  0  0  0  0  0  0
   -0.4426    1.8107   -0.4917 C   0  0  0  0  0  0  0  0  0  0  0  0
    0.1865    1.2870   -1.6828 O   0  0  0  0  0  0  0  0  0  0  0  0
   -1.3397   -0.6160   -0.6701 H   0  0  0  0  0  0  0  0  0  0  0  0
   -0.7942   -1.8675   -1.7173 H   0  0  0  0  0  0  0  0  0  0  0  0
    0.1586   -1.8547    0.7515 H   0  0  0  0  0  0  0  0  0  0  0  0
    1.1860   -2.2789   -0.6028 H   0  0  0  0  0  0  0  0  0  0  0  0
   -0.1694    1.9117    1.6374 H   0  0  0  0  0  0  0  0  0  0  0  0
   -0.7140    0.3600    1.1314 H   0  0  0  0  0  0  0  0  0  0  0  0
   -1.5296    1.7867   -0.6291 H   0  0  0  0  0  0  0  0  0  0  0  0
   -0.1628    2.8703   -0.4635 H   0  0  0  0  0  0  0  0  0  0  0  0
  1  2  2  0
  2  3  1  0
  3  4  1  0
  4  5  1  0
  5  6  1  0
  6  7  2  0
  6  8  1  0
  8  9  1  0
  9 10  1  0
 10  2  1  0
  3 11  1  0
  3 12  1  0
  4 13  1  0
  4 14  1  0
  8 15  1  0
  8 16  1  0
  9 17  1  0
  9 18  1  0
M  END
>  <conformer_id>  (15) 
14

>  <energy>  (15) 
-1615.2558979748703

$$$$

     RDKit          3D

 18 18  0  0  0  0  0  0  0  0999 V2000
   -2.0973   -0.7715   -2.0368 O   0  0  0  0  0  0  0  0  0  0  0  0
   -1.1324   -0.2015   -1.5391 C   0  0  0  0  0  0  0  0  0  0  0  0
    0.2173   -0.8427   -1.4887 C   0  0  0  0  0  0  0  0  0  0  0  0
    0.4938   -1.4824   -0.1365 C   0  0  0  0  0  0  0  0  0  0  0  0
   -0.0960   -0.8493    1.0211 O   0  0  0  0  0  0  0  0  0  0  0  0
    0.1381    0.4207    1.4236 C   0  0  0  0  0  0  0  0  0  0  0  0
   -0.2224    0.8191    2.5258 O   0  0  0  0  0  0  0  0  0  0  0  0
    0.8196    1.3247    0.4470 C   0  0  0  0  0  0  0  0  0  0  0  0
   -0.1476    1.8750   -0.5902 C   0  0  0  0  0  0  0  0  0  0  0  0
   -1.2492    1.0231   -0.9765 O   0  0  0  0  0  0  0  0  0  0  0  0
    0.2656   -1.6127   -2.2693 H   0  0  0  0  0  0  0  0  0  0  0  0
    0.9859   -0.1259   -1.7889 H   0  0  0  0  0  0  0  0  0  0  0  0
    0.0850   -2.4996   -0.1449 H   0  0  0  0  0  0  0  0  0  0  0  0
    1.5714   -1.5891    0.0322 H   0  0  0  0  0  0  0  0  0  0  0  0
    1.6812    0.8188    0.0038 H   0  0  0  0  0  0  0  0  0  0  0  0
    1.2688    2.1590    1.0007 H   0  0  0  0  0  0  0  0  0  0  0  0
    0.3864    2.1902   -1.4939 H   0  0  0  0  0  0  0  0  0  0  0  0
   -0.6150    2.7788   -0.1823 H   0  0  0  0  0  0  0  0  0  0  0  0
  1  2  2  0
  2  3  1  0
  3  4  1  0
  4  5  1  0
  5  6  1  0
  6  7  2  0
  6  8  1  0
  8  9  1  0
  9 10  1  0
 10  2  1  0
  3 11  1  0
  3 12  1  0
  4 13  1  0
  4 14  1  0
  8 15  1  0
  8 16  1  0
  9 17  1  0
  9 18  1  0
M  END
>  <conformer_id>  (16) 
2

>  <energy>  (16) 
-1615.25589759135

$$$$

     RDKit          3D

 18 18  0  0  0  0  0  0  0  0999 V2000
   -2.3487   -0.6833   -1.8153 O   0  0  0  0  0  0  0  0  0  0  0  0
   -1.2649   -0.2433   -1.4392 C   0  0  0  0  0  0  0  0  0  0  0  0
   -0.0135   -1.0807   -1.5551 C   0  0  0  0  0  0  0  0  0  0  0  0
    0.9376   -1.0922   -0.3696 C   0  0  0  0  0  0  0  0  0  0  0  0
    0.2519   -0.9421    0.8770 O   0  0  0  0  0  0  0  0  0  0  0  0
    0.0730    0.2553    1.4803 C   0  0  0  0  0  0  0  0  0  0  0  0
   -0.3732    0.3061    2.6240 O   0  0  0  0  0  0  0  0  0  0  0  0
    0.4875    1.5164    0.7603 C   0  0  0  0  0  0  0  0  0  0  0  0
    0.0735    1.6645   -0.6946 C   0  0  0  0  0  0  0  0  0  0  0  0
   -1.1748    1.0225   -0.9709 O   0  0  0  0  0  0  0  0  0  0  0  0
    0.5152   -0.8155   -2.4767 H   0  0  0  0  0  0  0  0  0  0  0  0
   -0.3650   -2.1129   -1.6914 H   0  0  0  0  0  0  0  0  0  0  0  0
    1.7494   -0.3648   -0.4656 H   0  0  0  0  0  0  0  0  0  0  0  0
    1.4443   -2.0642   -0.3349 H   0  0  0  0  0  0  0  0  0  0  0  0
    1.5671    1.6602    0.8751 H   0  0  0  0  0  0  0  0  0  0  0  0
    0.0101    2.3377    1.3125 H   0  0  0  0  0  0  0  0  0  0  0  0
   -0.0655    2.7299   -0.9138 H   0  0  0  0  0  0  0  0  0  0  0  0
    0.8494    1.3408   -1.3951 H   0  0  0  0  0  0  0  0  0  0  0  0
  1  2  2  0
  2  3  1  0
  3  4  1  0
  4  5  1  0
  5  6  1  0
  6  7  2  0
  6  8  1  0
  8  9  1  0
  9 10  1  0
 10  2  1  0
  3 11  1  0
  3 12  1  0
  4 13  1  0
  4 14  1  0
  8 15  1  0
  8 16  1  0
  9 17  1  0
  9 18  1  0
M  END
>  <conformer_id>  (17) 
11

>  <energy>  (17) 
-672.57684137878402

$$$$

     RDKit          3D

 18 18  0  0  0  0  0  0  0  0999 V2000
    0.6045   -0.1470   -3.3000 O   0  0  0  0  0  0  0  0  0  0  0  0
    0.1712    0.0090   -2.1609 C   0  0  0  0  0  0  0  0  0  0  0  0
   -0.3343   -1.1693   -1.3629 C   0  0  0  0  0  0  0  0  0  0  0  0
    0.0769   -1.2583    0.0976 C   0  0  0  0  0  0  0  0  0  0  0  0
    1.3727   -0.6986    0.3310 O   0  0  0  0  0  0  0  0  0  0  0  0
    1.5629    0.5831    0.7193 C   0  0  0  0  0  0  0  0  0  0  0  0
    2.6798    0.9607    1.0651 O   0  0  0  0  0  0  0  0  0  0  0  0
    0.3804    1.5201    0.7850 C   0  0  0  0  0  0  0  0  0  0  0  0
   -0.5749    1.5313   -0.3971 C   0  0  0  0  0  0  0  0  0  0  0  0
    0.0888    1.2517   -1.6332 O   0  0  0  0  0  0  0  0  0  0  0  0
   -1.4224   -1.2362   -1.4665 H   0  0  0  0  0  0  0  0  0  0  0  0
    0.0749   -2.0577   -1.8637 H   0  0  0  0  0  0  0  0  0  0  0  0
   -0.6671   -0.8329    0.7780 H   0  0  0  0  0  0  0  0  0  0  0  0
    0.1350   -2.3157    0.3826 H   0  0  0  0  0  0  0  0  0  0  0  0
    0.8110    2.5285    0.8560 H   0  0  0  0  0  0  0  0  0  0  0  0
   -0.1610    1.3541    1.7224 H   0  0  0  0  0  0  0  0  0  0  0  0
   -1.0056    2.5354   -0.4914 H   0  0  0  0  0  0  0  0  0  0  0  0
   -1.4396    0.8760   -0.2543 H   0  0  0  0  0  0  0  0  0  0  0  0
  1  2  2  0
  2  3  1  0
  3  4  1  0
  4  5  1  0
  5  6  1  0
  6  7  2  0
  6  8  1  0
  8  9  1  0
  9 10  1  0
 10  2  1  0
  3 11  1  0
  3 12  1  0
  4 13  1  0
  4 14  1  0
  8 15  1  0
  8 16  1  0
  9 17  1  0
  9 18  1  0
M  END
>  <conformer_id>  (18) 
19

>  <energy>  (18) 
-672.57684115724271

$$$$

     RDKit          3D

 18 18  0  0  0  0  0  0  0  0999 V2000
   -2.3757   -0.6496   -1.7890 O   0  0  0  0  0  0  0  0  0  0  0  0
   -1.2773   -0.2353   -1.4265 C   0  0  0  0  0  0  0  0  0  0  0  0
   -0.0576   -1.1225   -1.5033 C   0  0  0  0  0  0  0  0  0  0  0  0
    0.8893   -1.1212   -0.3145 C   0  0  0  0  0  0  0  0  0  0  0  0
    0.2065   -0.8954    0.9223 O   0  0  0  0  0  0  0  0  0  0  0  0
    0.0707    0.3312    1.4759 C   0  0  0  0  0  0  0  0  0  0  0  0
   -0.3763    0.4449    2.6148 O   0  0  0  0  0  0  0  0  0  0  0  0
    0.5338    1.5459    0.7073 C   0  0  0  0  0  0  0  0  0  0  0  0
    0.1293    1.6502   -0.7540 C   0  0  0  0  0  0  0  0  0  0  0  0
   -1.1413    1.0443   -1.0094 O   0  0  0  0  0  0  0  0  0  0  0  0
   -0.4469   -2.1456   -1.5992 H   0  0  0  0  0  0  0  0  0  0  0  0
    0.4830   -0.9146   -2.4327 H   0  0  0  0  0  0  0  0  0  0  0  0
    1.3594   -2.1091   -0.2384 H   0  0  0  0  0  0  0  0  0  0  0  0
    1.7279   -0.4289   -0.4365 H   0  0  0  0  0  0  0  0  0  0  0  0
    1.6176    1.6541    0.8206 H   0  0  0  0  0  0  0  0  0  0  0  0
    0.0858    2.4061    1.2239 H   0  0  0  0  0  0  0  0  0  0  0  0
    0.8944    1.2699   -1.4377 H   0  0  0  0  0  0  0  0  0  0  0  0
    0.0307    2.7103   -1.0167 H   0  0  0  0  0  0  0  0  0  0  0  0
  1  2  2  0
  2  3  1  0
  3  4  1  0
  4  5  1  0
  5  6  1  0
  6  7  2  0
  6  8  1  0
  8  9  1  0
  9 10  1  0
 10  2  1  0
  3 11  1  0
  3 12  1  0
  4 13  1  0
  4 14  1  0
  8 15  1  0
  8 16  1  0
  9 17  1  0
  9 18  1  0
M  END
>  <conformer_id>  (19) 
16

>  <energy>  (19) 
-672.5768396185681

$$$$

     RDKit          3D

 18 18  0  0  0  0  0  0  0  0999 V2000
    0.8367    0.0715   -3.2704 O   0  0  0  0  0  0  0  0  0  0  0  0
    0.3132    0.1180   -2.1598 C   0  0  0  0  0  0  0  0  0  0  0  0
   -0.1199   -1.1487   -1.4608 C   0  0  0  0  0  0  0  0  0  0  0  0
    0.1982   -1.2792    0.0197 C   0  0  0  0  0  0  0  0  0  0  0  0
    1.4098   -0.6066    0.3752 O   0  0  0  0  0  0  0  0  0  0  0  0
    1.4387    0.6635    0.8397 C   0  0  0  0  0  0  0  0  0  0  0  0
    2.4842    1.1309    1.2850 O   0  0  0  0  0  0  0  0  0  0  0  0
    0.1634    1.4718    0.8651 C   0  0  0  0  0  0  0  0  0  0  0  0
   -0.7055    1.4546   -0.3819 C   0  0  0  0  0  0  0  0  0  0  0  0
    0.0662    1.3140   -1.5783 O   0  0  0  0  0  0  0  0  0  0  0  0
    0.4127   -1.9615   -1.9738 H   0  0  0  0  0  0  0  0  0  0  0  0
   -1.1856   -1.3185   -1.6471 H   0  0  0  0  0  0  0  0  0  0  0  0
   -0.6305   -0.9702    0.6640 H   0  0  0  0  0  0  0  0  0  0  0  0
    0.3466   -2.3399    0.2552 H   0  0  0  0  0  0  0  0  0  0  0  0
   -0.4202    1.1992    1.7507 H   0  0  0  0  0  0  0  0  0  0  0  0
    0.4808    2.5127    1.0176 H   0  0  0  0  0  0  0  0  0  0  0  0
   -1.5049    0.7088   -0.3358 H   0  0  0  0  0  0  0  0  0  0  0  0
   -1.2310    2.4142   -0.4574 H   0  0  0  0  0  0  0  0  0  0  0  0
  1  2  2  0
  2  3  1  0
  3  4  1  0
  4  5  1  0
  5  6  1  0
  6  7  2  0
  6  8  1  0
  8  9  1  0
  9 10  1  0
 10  2  1  0
  3 11  1  0
  3 12  1  0
  4 13  1  0
  4 14  1  0
  8 15  1  0
  8 16  1  0
  9 17  1  0
  9 18  1  0
M  END
>  <conformer_id>  (20) 
10

>  <energy>  (20) 
-672.5768394095428

$$$$
