9
 energy: -16.583240978703 gnorm: 0.000052440966 xtb: 6.7.1 (edcfbbe)
O           -1.64002263070533        2.02619468852419        0.54484592555143
C           -0.82532589205870        1.19185083479618        0.78849324801149
C           -0.52108495862913        0.25256337373522        1.93910554834470
C            0.63353295531005       -0.18663087986904        1.02982586084913
O            0.21095498669021        0.76462731973890        0.02780541157615
H           -0.24275637797926        0.74705564549426        2.86617439688372
H           -1.29054586013010       -0.49014109899140        2.13340681368852
H            0.58369508250498       -1.20458862310925        0.64291378640901
H            1.63966378676918        0.04241915842068        1.38152059070995
