18
 energy: -33.204030973301 gnorm: 0.000063374173 xtb: 6.7.1 (edcfbbe)
O           -1.54058397976466       -0.34035837827008       -2.88592462390099
C           -0.84218459263164       -0.07148527992035       -1.94242152577916
C           -0.38054283569760       -1.16498655044513       -0.98654744527219
C            1.07720095423003       -1.10053235088824       -0.52093737118043
O            1.27593346655234       -0.68775686043256        0.82702599505507
C            0.71538516978992        0.35226042153155        1.44546562520384
O            0.94971504050777        0.50031316508376        2.61739563496077
C           -0.19458944027536        1.32886483823663        0.71022389598135
C            0.24891392934176        1.75926023946986       -0.69121022268249
O           -0.49562649997208        1.20469635802310       -1.77051513900664
H           -1.04704584740269       -1.19917786488272       -0.12079990438175
H           -0.54080968395716       -2.09644359764539       -1.53352200823453
H            1.68624145651833       -0.49203950151374       -1.19827148629238
H            1.49817770451520       -2.10996393023981       -0.52220744826580
H           -1.20953990890727        0.92472740631264        0.67207789763597
H           -0.23855397532224        2.20726183069592        1.35750251508374
H            1.32041204412289        1.58790026176340       -0.84119173077384
H            0.07073736329921        2.83187566282041       -0.80914586670151
