18
 energy: -33.204030973297 gnorm: 0.000063379336 xtb: 6.7.1 (edcfbbe)
O           -1.54058390131253       -0.34035838161274       -2.88592468272825
C           -0.84218456587319       -0.07148527987236       -1.94242154549273
C           -0.38054285815622       -1.16498654571450       -0.98654743285331
C            1.07720093747012       -1.10053236089393       -0.52093737312892
O            1.27593348503348       -0.68775684791029        0.82702598055488
C            0.71538519870475        0.35226043482157        1.44546561981181
O            0.94971512703758        0.50031320793146        2.61739561667020
C           -0.19458945614955        1.32886482323725        0.71022390314162
C            0.24891391798300        1.75926024456055       -0.69121020770569
O           -0.49562647084160        1.20469635429994       -1.77051514891588
H           -1.04704586878158       -1.19917782535553       -0.12079989045244
H           -0.54080972773680       -2.09644360113226       -1.53352197549428
H            1.68624144163880       -0.49203953305455       -1.19827150665025
H            1.49817767243494       -2.10996394597369       -0.52220743819413
H           -1.20953991060966        0.92472735855961        0.67207789308057
H           -0.23855402368381        2.20726181102082        1.35750252678320
H            1.32041203950040        1.58790029220521       -0.84119169983641
H            0.07073732828862        2.83187566458268       -0.80914584714097
