! wb97x-v def2-tzvp def2/J RIJCOSX DEFGRID2 scfconv7 GCP(DFT/TZ) SMD(toluene) printgap
%pal
nprocs 8
end
%output
printlevel normal
end
* xyz 0 1
O 1.8604324446 -1.4787492060 -1.9718472976
C 2.9884847541 -1.6825531791 -1.5764897923
C 3.5065749449 -3.0156631327 -1.0898049646
C 2.4057627225 -3.8609784904 -0.4564300414
C 1.9331139013 -3.2805139816 0.8769658435
C 0.6685658206 -3.9407642755 1.3944880382
O -0.4389120282 -3.7279271169 0.4709095093
C -1.0562772773 -2.5303266401 0.5538242781
O -0.7820992224 -1.6852298135 1.3789471562
C -2.1494522295 -2.4016433749 -0.4790737340
C -2.4464739818 -0.9427650884 -0.8068012877
C -3.7132303181 -0.7588975131 -1.6399295862
C -4.0141984241 0.7041667873 -1.8967619337
O -4.1894345080 1.3325639617 -0.5976045089
C -4.0822913425 2.6760215664 -0.5413782470
O -3.9690123861 3.3853949160 -1.5174704392
C -4.0994261621 3.1463118839 0.8932043041
C -2.9705463814 2.5141609759 1.7220537138
C -1.5857623781 2.8529109142 1.1692694634
C -0.4937259785 2.1195362754 1.9204215619
O 0.7785889175 2.6344138589 1.4329052530
C 1.8840366154 1.9785745895 1.8428994569
O 1.8635258833 1.0108868729 2.5727213104
C 3.1409249352 2.5882158672 1.2714793573
C 3.7972604718 1.6420490710 0.2549508890
C 2.9169044275 1.4027928980 -0.9707174679
C 3.5959758473 0.5759034501 -2.0464761997
O 3.9615543202 -0.7463692632 -1.5573029014
H 3.9202090709 -3.5213727444 -1.9730057097
H 4.3421830053 -2.8523142321 -0.4016574865
H 1.5630756011 -3.9199998696 -1.1522281444
H 2.7766831197 -4.8815176404 -0.3050831321
H 2.7134743546 -3.4025128595 1.6394047968
H 1.7509454576 -2.2032543728 0.7833027513
H 0.3920857240 -3.5578100021 2.3805290217
H 0.7743530156 -5.0286389974 1.4413367947
H -3.0393787007 -2.8827889882 -0.0475306181
H -1.8823962954 -2.9805056279 -1.3686347427
H -2.5500905607 -0.3923570859 0.1317982195
H -1.5875028449 -0.5078697772 -1.3343014487
H -3.6153396759 -1.2558620087 -2.6135728695
H -4.5681207371 -1.2208084002 -1.1293011868
H -3.1908352183 1.2015611020 -2.4203382243
H -4.9304457852 0.8410023185 -2.4814769138
H -4.0146037967 4.2359266276 0.8828491185
H -5.0693683945 2.8811082265 1.3299198098
H -3.0531617854 2.8746742930 2.7540926676
H -3.1076220437 1.4274288005 1.7509911788
H -1.4155164542 3.9343714183 1.2365607274
H -1.5232559165 2.5839241695 0.1062992988
H -0.5337828321 1.0384968206 1.7496901467
H -0.5493751227 2.3016240946 3.0005249213
H 2.9148124812 3.5517172290 0.8063214272
H 3.8255766084 2.7560418934 2.1093801103
H 4.7526634927 2.0812844419 -0.0574933884
H 4.0252896706 0.6904240883 0.7472793754
H 1.9770409173 0.9167108115 -0.6822398236
H 2.6469203340 2.3655607663 -1.4255959370
H 4.5487346599 1.0238980583 -2.3436899455
H 2.9554504739 0.4658541166 -2.9259119151
*

