! wb97x-v def2-tzvp def2/J RIJCOSX DEFGRID2 scfconv7 GCP(DFT/TZ) SMD(toluene) printgap
%pal
nprocs 32
end
%output
printlevel normal
end
* xyz 0 1
O     -4.451473    1.118565    2.601829
C     -3.866791    0.055660    2.761422
C     -3.464102   -0.485602    4.106441
C     -1.979059   -0.297045    4.410229
C     -1.569652    1.165972    4.641753
C     -1.137670    1.902976    3.374710
O      0.052285    1.284527    2.866038
C      0.455534    1.746873    1.650336
O     -0.127881    2.596498    0.991486
C      1.747088    1.071579    1.255098
C      2.036962    1.243630   -0.233850
C      3.347263    0.561555   -0.630617
C      3.580707    0.614478   -2.138396
O      2.657962   -0.280359   -2.777103
C      2.767347   -0.321336   -4.132165
O      3.516590    0.377620   -4.802573
C      1.875157   -1.392949   -4.705103
C      2.518319   -2.771123   -4.561858
C      1.731268   -3.777424   -3.711773
C      1.587867   -3.389996   -2.241223
O      0.459527   -2.518652   -2.101041
C      0.245314   -2.067942   -0.835516
O      0.947713   -2.312384    0.135879
C     -1.025184   -1.259481   -0.777868
C     -2.206488   -2.171394   -0.472912
C     -3.562209   -1.463093   -0.545645
C     -3.741587   -0.313968    0.444110
O     -3.464399   -0.782303    1.768894
H     -4.083332   -0.004077    4.872264
H     -3.723285   -1.551110    4.135234
H     -1.768748   -0.850301    5.334266
H     -1.363522   -0.753994    3.627548
H     -2.380692    1.716557    5.132807
H     -0.716508    1.162284    5.332839
H     -0.906987    2.944715    3.625592
H     -1.926719    1.887318    2.618323
H      1.666008    0.005383    1.488455
H      2.554180    1.502864    1.856468
H      1.205421    0.839875   -0.819360
H      2.098697    2.310188   -0.478631
H      4.179536    1.056255   -0.116523
H      3.325278   -0.484214   -0.303050
H      3.441768    1.634420   -2.517243
H      4.603291    0.281262   -2.353937
H      0.879448   -1.320386   -4.259627
H      1.741597   -1.158333   -5.768691
H      2.617816   -3.202839   -5.565908
H      3.538251   -2.693143   -4.166604
H      2.265905   -4.733989   -3.763796
H      0.742344   -3.931488   -4.160042
H      2.499300   -2.910414   -1.868039
H      1.393762   -4.295031   -1.653309
H     -0.901643   -0.493738   -0.004903
H     -1.159102   -0.730127   -1.727881
H     -2.216029   -3.004369   -1.187233
H     -2.072055   -2.627494    0.515954
H     -3.732961   -1.091977   -1.563198
H     -4.336179   -2.215154   -0.345341
H     -4.773180    0.049971    0.375393
H     -3.060075    0.509565    0.208412
*

